3
# CELL(abcABC):   8.000    8.000    8.000    90.00000    90.00000    90.00000  Step:           0  Bead:       0 positions{angstrom}  cell{angstrom}
 O   0.54044984       -0.97485007       -0.21657970 
 H   1.54328720       -0.97927800       -0.26039502 
 H   0.18385954       -1.25804198       -1.07875142
